
This summary information was generated by ElastoDyn on 10-Oct-2019 at 17:34:21.


Turbine features:

            Upwind, three-bladed rotor with rigid hub.
            The model has 14 of 24 DOFs active (enabled) at start-up.
 Disabled   Platform horizontal surge translation DOF 
 Disabled   Platform horizontal sway translation DOF 
 Disabled   Platform vertical heave translation DOF 
 Disabled   Platform roll tilt rotation DOF 
 Disabled   Platform pitch tilt rotation DOF 
 Disabled   Platform yaw rotation DOF 
 Enabled    1st tower fore-aft bending mode DOF 
 Enabled    1st tower side-to-side bending mode DOF 
 Enabled    2nd tower fore-aft bending mode DOF 
 Enabled    2nd tower side-to-side bending mode DOF 
 Disabled   Nacelle yaw DOF 
 Disabled   Rotor-furl DOF 
 Enabled    Variable speed generator DOF 
 Disabled   Drivetrain rotational-flexibility DOF 
 Disabled   Tail-furl DOF 
 Enabled    1st flapwise bending-mode DOF of blade 1 
 Enabled    1st edgewise bending-mode DOF of blade 1 
 Enabled    2nd flapwise bending-mode DOF of blade 1 
 Enabled    1st flapwise bending-mode DOF of blade 2 
 Enabled    1st edgewise bending-mode DOF of blade 2 
 Enabled    2nd flapwise bending-mode DOF of blade 2 
 Enabled    1st flapwise bending-mode DOF of blade 3 
 Enabled    1st edgewise bending-mode DOF of blade 3 
 Enabled    2nd flapwise bending-mode DOF of blade 3 


Time steps:

    Structural            (s)        0.01000000


Some calculated parameters:

    Hub-Height            (m)           143.704
    Flexible Tower Length (m)           140.000
    Flexible Blade Length (m)            99.996


Rotor mass properties:

    Rotor Mass            (kg)       251478.417
    Rotor Inertia         (kg-m^2)306744172.275
                                        Blade 1      Blade 2      Blade 3
                                        -------      -------      -------
    Mass                  (kg)        63420.270    63420.270    63420.270
    Second Mass Moment    (kg-m^2) 91041286.333 91041286.333 91041286.333
    First Mass Moment     (kg-m)    1792533.881  1792533.881  1792533.881
    Center of Mass        (m)            28.264       28.264       28.264


Additional mass properties:

    Tower-top Mass        (kg)       660555.889
    Tower Mass            (kg)       555301.740
    Platform Mass         (kg)            0.000
    Mass Incl. Platform   (kg)      1215857.629


Interpolated tower properties:

Node  TwFract   HNodes  DHNodes  TMassDen    FAStiff    SSStiff
 (-)      (-)      (m)      (m)    (kg/m)     (Nm^2)     (Nm^2)
   1    0.025    3.500    7.000  5501.260  5.945E+11  5.945E+11
   2    0.075   10.500    7.000  5322.040  5.547E+11  5.547E+11
   3    0.125   17.500    7.000  5145.763  5.169E+11  5.169E+11
   4    0.175   24.500    7.000  4972.428  4.812E+11  4.812E+11
   5    0.225   31.500    7.000  4802.038  4.472E+11  4.472E+11
   6    0.275   38.500    7.000  4634.592  4.152E+11  4.152E+11
   7    0.325   45.500    7.000  4470.090  3.848E+11  3.848E+11
   8    0.375   52.500    7.000  4308.530  3.562E+11  3.562E+11
   9    0.425   59.500    7.000  4149.915  3.292E+11  3.292E+11
  10    0.475   66.500    7.000  3994.245  3.037E+11  3.037E+11
  11    0.525   73.500    7.000  3841.515  2.798E+11  2.798E+11
  12    0.575   80.500    7.000  3691.725  2.573E+11  2.573E+11
  13    0.625   87.500    7.000  3544.880  2.361E+11  2.361E+11
  14    0.675   94.500    7.000  3400.980  2.163E+11  2.163E+11
  15    0.725  101.500    7.000  3260.025  1.978E+11  1.978E+11
  16    0.775  108.500    7.000  3122.015  1.805E+11  1.805E+11
  17    0.825  115.500    7.000  2986.945  1.643E+11  1.643E+11
  18    0.875  122.500    7.000  2854.815  1.493E+11  1.493E+11
  19    0.925  129.500    7.000  2725.630  1.353E+11  1.353E+11
  20    0.975  136.500    7.000  2599.390  1.223E+11  1.223E+11


Interpolated blade 1 properties:

Node  BlFract   RNodes  DRNodes PitchAxis  StrcTwst  BMassDen    FlpStff    EdgStff
 (-)      (-)      (m)      (m)       (-)     (deg)    (kg/m)     (Nm^2)     (Nm^2)
   1    0.010    4.000    2.000     0.495    19.744  2729.134  9.418E+10  9.358E+10
   2    0.030    6.000    2.000     0.482    19.101  2421.766  8.279E+10  8.378E+10
   3    0.050    8.000    2.000     0.469    18.330  2115.108  7.004E+10  7.412E+10
   4    0.070   10.000    2.000     0.453    17.444  1882.352  5.787E+10  6.491E+10
   5    0.090   12.000    2.000     0.434    16.443  1723.497  4.629E+10  5.615E+10
   6    0.110   14.000    2.000     0.416    15.389  1511.040  3.546E+10  4.681E+10
   7    0.130   16.000    2.000     0.398    14.282  1244.980  2.538E+10  3.689E+10
   8    0.150   17.999    2.000     0.380    13.185  1016.833  1.807E+10  2.852E+10
   9    0.170   19.999    2.000     0.363    12.098   826.598  1.352E+10  2.169E+10
  10    0.190   21.999    2.000     0.348    11.081   703.924  1.066E+10  1.723E+10
  11    0.210   23.999    2.000     0.335    10.135   648.812  9.488E+09  1.513E+10
  12    0.230   25.999    2.000     0.324     9.333   610.062  8.505E+09  1.356E+10
  13    0.250   27.999    2.000     0.315     8.644   584.101  7.672E+09  1.241E+10
  14    0.270   29.999    2.000     0.307     8.095   567.598  7.013E+09  1.148E+10
  15    0.290   31.999    2.000     0.301     7.630   556.829  6.457E+09  1.070E+10
  16    0.310   33.999    2.000     0.296     7.220   555.126  6.036E+09  1.016E+10
  17    0.330   35.999    2.000     0.291     6.840   557.324  5.674E+09  9.713E+09
  18    0.350   37.999    2.000     0.288     6.498   557.645  5.298E+09  9.173E+09
  19    0.370   39.999    2.000     0.286     6.166   556.052  4.926E+09  8.626E+09
  20    0.390   41.999    2.000     0.284     5.842   552.966  4.558E+09  8.074E+09
  21    0.410   43.998    2.000     0.283     5.514   546.176  4.208E+09  7.566E+09
  22    0.430   45.998    2.000     0.282     5.196   538.196  3.856E+09  7.032E+09
  23    0.450   47.998    2.000     0.282     4.888   528.933  3.501E+09  6.470E+09
  24    0.470   49.998    2.000     0.282     4.595   518.309  3.151E+09  5.904E+09
  25    0.490   51.998    2.000     0.282     4.305   507.282  2.811E+09  5.349E+09
  26    0.510   53.998    2.000     0.283     4.019   495.762  2.489E+09  4.813E+09
  27    0.530   55.998    2.000     0.284     3.730   484.177  2.204E+09  4.328E+09
  28    0.550   57.998    2.000     0.285     3.438   472.455  1.938E+09  3.868E+09
  29    0.570   59.998    2.000     0.285     3.143   460.359  1.705E+09  3.449E+09
  30    0.590   61.998    2.000     0.286     2.851   446.670  1.488E+09  3.056E+09
  31    0.610   63.998    2.000     0.287     2.561   432.037  1.283E+09  2.681E+09
  32    0.630   65.998    2.000     0.287     2.269   415.906  1.102E+09  2.346E+09
  33    0.650   67.998    2.000     0.288     1.970   399.347  9.357E+08  2.038E+09
  34    0.670   69.997    2.000     0.289     1.667   382.425  7.827E+08  1.753E+09
  35    0.690   71.997    2.000     0.291     1.344   365.520  6.560E+08  1.518E+09
  36    0.710   73.997    2.000     0.293     1.014   348.626  5.399E+08  1.301E+09
  37    0.730   75.997    2.000     0.296     0.675   331.748  4.381E+08  1.109E+09
  38    0.750   77.997    2.000     0.298     0.327   314.263  3.533E+08  9.458E+08
  39    0.770   79.997    2.000     0.301    -0.031   296.384  2.767E+08  7.972E+08
  40    0.790   81.997    2.000     0.303    -0.409   277.756  2.132E+08  6.746E+08
  41    0.810   83.997    2.000     0.306    -0.811   254.708  1.583E+08  5.511E+08
  42    0.830   85.997    2.000     0.308    -1.238   227.240  1.120E+08  4.268E+08
  43    0.850   87.997    2.000     0.311    -1.715   195.077  7.765E+07  3.170E+08
  44    0.870   89.997    2.000     0.314    -2.214   160.818  4.871E+07  2.136E+08
  45    0.890   91.997    2.000     0.317    -2.800   129.181  3.212E+07  1.477E+08
  46    0.910   93.997    2.000     0.321    -3.398    97.894  1.717E+07  8.683E+07
  47    0.930   95.997    2.000     0.324    -4.080    72.180  1.038E+07  5.530E+07
  48    0.950   97.996    2.000     0.328    -4.767    46.814  4.096E+06  2.560E+07
  49    0.970   99.996    2.000     0.333    -5.537    30.048  2.488E+06  1.589E+07
  50    0.990  101.996    2.000     0.338    -6.308    13.282  8.787E+05  6.185E+06


Interpolated blade 2 properties:

Node  BlFract   RNodes  DRNodes PitchAxis  StrcTwst  BMassDen    FlpStff    EdgStff
 (-)      (-)      (m)      (m)       (-)     (deg)    (kg/m)     (Nm^2)     (Nm^2)
   1    0.010    4.000    2.000     0.495    19.744  2729.134  9.418E+10  9.358E+10
   2    0.030    6.000    2.000     0.482    19.101  2421.766  8.279E+10  8.378E+10
   3    0.050    8.000    2.000     0.469    18.330  2115.108  7.004E+10  7.412E+10
   4    0.070   10.000    2.000     0.453    17.444  1882.352  5.787E+10  6.491E+10
   5    0.090   12.000    2.000     0.434    16.443  1723.497  4.629E+10  5.615E+10
   6    0.110   14.000    2.000     0.416    15.389  1511.040  3.546E+10  4.681E+10
   7    0.130   16.000    2.000     0.398    14.282  1244.980  2.538E+10  3.689E+10
   8    0.150   17.999    2.000     0.380    13.185  1016.833  1.807E+10  2.852E+10
   9    0.170   19.999    2.000     0.363    12.098   826.598  1.352E+10  2.169E+10
  10    0.190   21.999    2.000     0.348    11.081   703.924  1.066E+10  1.723E+10
  11    0.210   23.999    2.000     0.335    10.135   648.812  9.488E+09  1.513E+10
  12    0.230   25.999    2.000     0.324     9.333   610.062  8.505E+09  1.356E+10
  13    0.250   27.999    2.000     0.315     8.644   584.101  7.672E+09  1.241E+10
  14    0.270   29.999    2.000     0.307     8.095   567.598  7.013E+09  1.148E+10
  15    0.290   31.999    2.000     0.301     7.630   556.829  6.457E+09  1.070E+10
  16    0.310   33.999    2.000     0.296     7.220   555.126  6.036E+09  1.016E+10
  17    0.330   35.999    2.000     0.291     6.840   557.324  5.674E+09  9.713E+09
  18    0.350   37.999    2.000     0.288     6.498   557.645  5.298E+09  9.173E+09
  19    0.370   39.999    2.000     0.286     6.166   556.052  4.926E+09  8.626E+09
  20    0.390   41.999    2.000     0.284     5.842   552.966  4.558E+09  8.074E+09
  21    0.410   43.998    2.000     0.283     5.514   546.176  4.208E+09  7.566E+09
  22    0.430   45.998    2.000     0.282     5.196   538.196  3.856E+09  7.032E+09
  23    0.450   47.998    2.000     0.282     4.888   528.933  3.501E+09  6.470E+09
  24    0.470   49.998    2.000     0.282     4.595   518.309  3.151E+09  5.904E+09
  25    0.490   51.998    2.000     0.282     4.305   507.282  2.811E+09  5.349E+09
  26    0.510   53.998    2.000     0.283     4.019   495.762  2.489E+09  4.813E+09
  27    0.530   55.998    2.000     0.284     3.730   484.177  2.204E+09  4.328E+09
  28    0.550   57.998    2.000     0.285     3.438   472.455  1.938E+09  3.868E+09
  29    0.570   59.998    2.000     0.285     3.143   460.359  1.705E+09  3.449E+09
  30    0.590   61.998    2.000     0.286     2.851   446.670  1.488E+09  3.056E+09
  31    0.610   63.998    2.000     0.287     2.561   432.037  1.283E+09  2.681E+09
  32    0.630   65.998    2.000     0.287     2.269   415.906  1.102E+09  2.346E+09
  33    0.650   67.998    2.000     0.288     1.970   399.347  9.357E+08  2.038E+09
  34    0.670   69.997    2.000     0.289     1.667   382.425  7.827E+08  1.753E+09
  35    0.690   71.997    2.000     0.291     1.344   365.520  6.560E+08  1.518E+09
  36    0.710   73.997    2.000     0.293     1.014   348.626  5.399E+08  1.301E+09
  37    0.730   75.997    2.000     0.296     0.675   331.748  4.381E+08  1.109E+09
  38    0.750   77.997    2.000     0.298     0.327   314.263  3.533E+08  9.458E+08
  39    0.770   79.997    2.000     0.301    -0.031   296.384  2.767E+08  7.972E+08
  40    0.790   81.997    2.000     0.303    -0.409   277.756  2.132E+08  6.746E+08
  41    0.810   83.997    2.000     0.306    -0.811   254.708  1.583E+08  5.511E+08
  42    0.830   85.997    2.000     0.308    -1.238   227.240  1.120E+08  4.268E+08
  43    0.850   87.997    2.000     0.311    -1.715   195.077  7.765E+07  3.170E+08
  44    0.870   89.997    2.000     0.314    -2.214   160.818  4.871E+07  2.136E+08
  45    0.890   91.997    2.000     0.317    -2.800   129.181  3.212E+07  1.477E+08
  46    0.910   93.997    2.000     0.321    -3.398    97.894  1.717E+07  8.683E+07
  47    0.930   95.997    2.000     0.324    -4.080    72.180  1.038E+07  5.530E+07
  48    0.950   97.996    2.000     0.328    -4.767    46.814  4.096E+06  2.560E+07
  49    0.970   99.996    2.000     0.333    -5.537    30.048  2.488E+06  1.589E+07
  50    0.990  101.996    2.000     0.338    -6.308    13.282  8.787E+05  6.185E+06


Interpolated blade 3 properties:

Node  BlFract   RNodes  DRNodes PitchAxis  StrcTwst  BMassDen    FlpStff    EdgStff
 (-)      (-)      (m)      (m)       (-)     (deg)    (kg/m)     (Nm^2)     (Nm^2)
   1    0.010    4.000    2.000     0.495    19.744  2729.134  9.418E+10  9.358E+10
   2    0.030    6.000    2.000     0.482    19.101  2421.766  8.279E+10  8.378E+10
   3    0.050    8.000    2.000     0.469    18.330  2115.108  7.004E+10  7.412E+10
   4    0.070   10.000    2.000     0.453    17.444  1882.352  5.787E+10  6.491E+10
   5    0.090   12.000    2.000     0.434    16.443  1723.497  4.629E+10  5.615E+10
   6    0.110   14.000    2.000     0.416    15.389  1511.040  3.546E+10  4.681E+10
   7    0.130   16.000    2.000     0.398    14.282  1244.980  2.538E+10  3.689E+10
   8    0.150   17.999    2.000     0.380    13.185  1016.833  1.807E+10  2.852E+10
   9    0.170   19.999    2.000     0.363    12.098   826.598  1.352E+10  2.169E+10
  10    0.190   21.999    2.000     0.348    11.081   703.924  1.066E+10  1.723E+10
  11    0.210   23.999    2.000     0.335    10.135   648.812  9.488E+09  1.513E+10
  12    0.230   25.999    2.000     0.324     9.333   610.062  8.505E+09  1.356E+10
  13    0.250   27.999    2.000     0.315     8.644   584.101  7.672E+09  1.241E+10
  14    0.270   29.999    2.000     0.307     8.095   567.598  7.013E+09  1.148E+10
  15    0.290   31.999    2.000     0.301     7.630   556.829  6.457E+09  1.070E+10
  16    0.310   33.999    2.000     0.296     7.220   555.126  6.036E+09  1.016E+10
  17    0.330   35.999    2.000     0.291     6.840   557.324  5.674E+09  9.713E+09
  18    0.350   37.999    2.000     0.288     6.498   557.645  5.298E+09  9.173E+09
  19    0.370   39.999    2.000     0.286     6.166   556.052  4.926E+09  8.626E+09
  20    0.390   41.999    2.000     0.284     5.842   552.966  4.558E+09  8.074E+09
  21    0.410   43.998    2.000     0.283     5.514   546.176  4.208E+09  7.566E+09
  22    0.430   45.998    2.000     0.282     5.196   538.196  3.856E+09  7.032E+09
  23    0.450   47.998    2.000     0.282     4.888   528.933  3.501E+09  6.470E+09
  24    0.470   49.998    2.000     0.282     4.595   518.309  3.151E+09  5.904E+09
  25    0.490   51.998    2.000     0.282     4.305   507.282  2.811E+09  5.349E+09
  26    0.510   53.998    2.000     0.283     4.019   495.762  2.489E+09  4.813E+09
  27    0.530   55.998    2.000     0.284     3.730   484.177  2.204E+09  4.328E+09
  28    0.550   57.998    2.000     0.285     3.438   472.455  1.938E+09  3.868E+09
  29    0.570   59.998    2.000     0.285     3.143   460.359  1.705E+09  3.449E+09
  30    0.590   61.998    2.000     0.286     2.851   446.670  1.488E+09  3.056E+09
  31    0.610   63.998    2.000     0.287     2.561   432.037  1.283E+09  2.681E+09
  32    0.630   65.998    2.000     0.287     2.269   415.906  1.102E+09  2.346E+09
  33    0.650   67.998    2.000     0.288     1.970   399.347  9.357E+08  2.038E+09
  34    0.670   69.997    2.000     0.289     1.667   382.425  7.827E+08  1.753E+09
  35    0.690   71.997    2.000     0.291     1.344   365.520  6.560E+08  1.518E+09
  36    0.710   73.997    2.000     0.293     1.014   348.626  5.399E+08  1.301E+09
  37    0.730   75.997    2.000     0.296     0.675   331.748  4.381E+08  1.109E+09
  38    0.750   77.997    2.000     0.298     0.327   314.263  3.533E+08  9.458E+08
  39    0.770   79.997    2.000     0.301    -0.031   296.384  2.767E+08  7.972E+08
  40    0.790   81.997    2.000     0.303    -0.409   277.756  2.132E+08  6.746E+08
  41    0.810   83.997    2.000     0.306    -0.811   254.708  1.583E+08  5.511E+08
  42    0.830   85.997    2.000     0.308    -1.238   227.240  1.120E+08  4.268E+08
  43    0.850   87.997    2.000     0.311    -1.715   195.077  7.765E+07  3.170E+08
  44    0.870   89.997    2.000     0.314    -2.214   160.818  4.871E+07  2.136E+08
  45    0.890   91.997    2.000     0.317    -2.800   129.181  3.212E+07  1.477E+08
  46    0.910   93.997    2.000     0.321    -3.398    97.894  1.717E+07  8.683E+07
  47    0.930   95.997    2.000     0.324    -4.080    72.180  1.038E+07  5.530E+07
  48    0.950   97.996    2.000     0.328    -4.767    46.814  4.096E+06  2.560E+07
  49    0.970   99.996    2.000     0.333    -5.537    30.048  2.488E+06  1.589E+07
  50    0.990  101.996    2.000     0.338    -6.308    13.282  8.787E+05  6.185E+06


Requested Outputs:


 Col   Parameter  Units     
 ---   ---------- ----------
   0   Time       (s)       
   1   GenSpeed   (rpm)     
   2   HSSBrTq    (kN-m)    
   3   HSShftTq   (kN-m)    
   4   LSSTipMya  (kN-m)    
   5   LSSTipMys  (kN-m)    
   6   LSSTipMza  (kN-m)    
   7   LSSTipMzs  (kN-m)    
   8   LSSTipPxa  (deg)     
   9   LSShftFxa  (kN)      
  10   LSShftFya  (kN)      
  11   LSShftFys  (kN)      
  12   LSShftFza  (kN)      
  13   LSShftFzs  (kN)      
  14   LSShftMxa  (kN-m)    
  15   NcIMUTAxs  (m/s^2)   
  16   NcIMUTAys  (m/s^2)   
  17   PtchPMzc1  (deg)     
  18   PtchPMzc2  (deg)     
  19   PtchPMzc3  (deg)     
  20   RootFxb1   (kN)      
  21   RootFxb2   (kN)      
  22   RootFxb3   (kN)      
  23   RootFxc1   (kN)      
  24   RootFxc2   (kN)      
  25   RootFxc3   (kN)      
  26   RootFyb1   (kN)      
  27   RootFyb2   (kN)      
  28   RootFyb3   (kN)      
  29   RootFyc1   (kN)      
  30   RootFyc2   (kN)      
  31   RootFyc3   (kN)      
  32   RootFzb1   (kN)      
  33   RootFzb2   (kN)      
  34   RootFzb3   (kN)      
  35   RootMxb1   (kN-m)    
  36   RootMxb2   (kN-m)    
  37   RootMxb3   (kN-m)    
  38   RootMxc1   (kN-m)    
  39   RootMxc2   (kN-m)    
  40   RootMxc3   (kN-m)    
  41   RootMyb1   (kN-m)    
  42   RootMyb2   (kN-m)    
  43   RootMyb3   (kN-m)    
  44   RootMyc1   (kN-m)    
  45   RootMyc2   (kN-m)    
  46   RootMyc3   (kN-m)    
  47   RootMzb1   (kN-m)    
  48   RootMzb2   (kN-m)    
  49   RootMzb3   (kN-m)    
  50   RotSpeed   (rpm)     
  51   Spn1FLxb1  (kN)      
  52   Spn1FLyb1  (kN)      
  53   Spn1FLzb1  (kN)      
  54   Spn1MLxb1  (kN-m)    
  55   Spn1MLyb1  (kN-m)    
  56   Spn1MLzb1  (kN-m)    
  57   Spn2FLxb1  (kN)      
  58   Spn2FLyb1  (kN)      
  59   Spn2FLzb1  (kN)      
  60   Spn2MLxb1  (kN-m)    
  61   Spn2MLyb1  (kN-m)    
  62   Spn2MLzb1  (kN-m)    
  63   Spn3FLxb1  (kN)      
  64   Spn3FLyb1  (kN)      
  65   Spn3FLzb1  (kN)      
  66   Spn3MLxb1  (kN-m)    
  67   Spn3MLyb1  (kN-m)    
  68   Spn3MLzb1  (kN-m)    
  69   Spn4FLxb1  (kN)      
  70   Spn4FLyb1  (kN)      
  71   Spn4FLzb1  (kN)      
  72   Spn4MLxb1  (kN-m)    
  73   Spn4MLyb1  (kN-m)    
  74   Spn4MLzb1  (kN-m)    
  75   Spn5FLxb1  (kN)      
  76   Spn5FLyb1  (kN)      
  77   Spn5FLzb1  (kN)      
  78   Spn5MLxb1  (kN-m)    
  79   Spn5MLyb1  (kN-m)    
  80   Spn5MLzb1  (kN-m)    
  81   Spn6FLxb1  (kN)      
  82   Spn6FLyb1  (kN)      
  83   Spn6FLzb1  (kN)      
  84   Spn6MLxb1  (kN-m)    
  85   Spn6MLyb1  (kN-m)    
  86   Spn6MLzb1  (kN-m)    
  87   Spn7FLxb1  (kN)      
  88   Spn7FLyb1  (kN)      
  89   Spn7FLzb1  (kN)      
  90   Spn7MLxb1  (kN-m)    
  91   Spn7MLyb1  (kN-m)    
  92   Spn7MLzb1  (kN-m)    
  93   Spn8FLxb1  (kN)      
  94   Spn8FLyb1  (kN)      
  95   Spn8FLzb1  (kN)      
  96   Spn8MLxb1  (kN-m)    
  97   Spn8MLyb1  (kN-m)    
  98   Spn8MLzb1  (kN-m)    
  99   Spn9FLxb1  (kN)      
 100   Spn9FLyb1  (kN)      
 101   Spn9FLzb1  (kN)      
 102   Spn9MLxb1  (kN-m)    
 103   Spn9MLyb1  (kN-m)    
 104   Spn9MLzb1  (kN-m)    
 105   TipClrnc1  (m)       
 106   TipClrnc2  (m)       
 107   TipClrnc3  (m)       
 108   TipDxb1    (m)       
 109   TipDxb2    (m)       
 110   TipDxb3    (m)       
 111   TipDxc1    (m)       
 112   TipDxc2    (m)       
 113   TipDxc3    (m)       
 114   TipDyb1    (m)       
 115   TipDyb2    (m)       
 116   TipDyb3    (m)       
 117   TipDyc1    (m)       
 118   TipDyc2    (m)       
 119   TipDyc3    (m)       
 120   TipDzb1    (m)       
 121   TipDzb2    (m)       
 122   TipDzb3    (m)       
 123   TipDzc1    (m)       
 124   TipDzc2    (m)       
 125   TipDzc3    (m)       
 126   TwrBsFxt   (kN)      
 127   TwrBsFyt   (kN)      
 128   TwrBsFzt   (kN)      
 129   TwrBsMxt   (kN-m)    
 130   TwrBsMyt   (kN-m)    
 131   TwrBsMzt   (kN-m)    
 132   YawBrFxn   (kN)      
 133   YawBrFxp   (kN)      
 134   YawBrFyn   (kN)      
 135   YawBrFyp   (kN)      
 136   YawBrFzn   (kN)      
 137   YawBrMxn   (kN-m)    
 138   YawBrMxp   (kN-m)    
 139   YawBrMyn   (kN-m)    
 140   YawBrMyp   (kN-m)    
 141   YawBrMzn   (kN-m)    
 142   YawBrTDxt  (m)       
 143   YawBrTDyt  (m)       
 144   YawPzn     (deg)     
